Circuit: * C:\Users\Gurendra Babu\Desktop\stage3\final\final\schematic.asc

Ignoring BSIM parameter XL
Ignoring BSIM parameter XW
Ignoring BSIM parameter XL
Ignoring BSIM parameter XW
Limiting fall time of source v3 to 0.001
Limiting fall time of source v2 to 0.001
WARNING: Node N005 is floating.
WARNING: Node N004 is floating.
WARNING: Node N006 is floating.
WARNING: Node N007 is floating.
WARNING: Node N011 is floating.
WARNING: Node N017 is floating.

WARNING: Less than two connections to node N005.  This node is used by M1.
WARNING: Less than two connections to node N004.  This node is used by M2.
WARNING: Less than two connections to node N006.  This node is used by M5.
WARNING: Less than two connections to node N007.  This node is used by M6.
WARNING: Less than two connections to node N011.  This node is used by M7.
WARNING: Less than two connections to node N017.  This node is used by M16.
Warning: Pd = 0 is less than W.
Warning: Ps = 0 is less than W.
Warning: Pd = 0 is less than W.
Warning: Ps = 0 is less than W.
Warning: Pd = 0 is less than W.
Warning: Ps = 0 is less than W.
Warning: Pd = 0 is less than W.
Warning: Ps = 0 is less than W.
Warning: Pd = 0 is less than W.
Warning: Ps = 0 is less than W.
Direct Newton iteration for .op point succeeded.

Date: Thu Jul 16 22:20:03 2020
Total elapsed time: 0.192 seconds.

tnom = 27
temp = 27
method = modified trap
totiter = 2840
traniter = 2813
tranpoints = 1229
accept = 1169
rejected = 60
matrix size = 25
fillins = 16
solver = Normal
Matrix Compiler1: 2.71 KB object code size  0.7/0.5/[0.2]
Matrix Compiler2:     200 opcodes  0.5/[0.5]/0.5

